ELEMENTS
H  C  N
END

SPECIES
CH4  H2 	C2H2 	C2H4 	C6H6	N2
END

REACTIONS

N2 => N2 1 0 0

END
